30
Ado Energy = -888.2142917725
C 78.0923158 -56.7951656 5.4370953 
C 78.4075756 -58.2648255 5.7995907 
C 77.0166851 -58.7839286 6.1585813 
C 76.4304593 -57.5760736 6.9067200 
C 76.7727923 -57.5400357 8.3515338 
C 82.6085586 -54.9619487 5.3771255
C 81.2381032 -54.9887109 5.7227741 
N 80.4249348 -54.1325741 6.4516291 
C 79.2358594 -54.7111307 6.4286412 
N 79.2259421 -55.9028672 5.7333274 
C 80.5081660 -56.0900936 5.2687581 
N 80.9782004 -57.1239008 4.5412669 
C 82.2871761 -56.9865084 4.2759396 
N 83.1048049 -55.9901905 4.6413114 
H 77.8660812 -56.7011055 4.3682360 
H 79.0482819 -58.2867444 6.6921166 
H 77.0476212 -59.6802244 6.7880307 
H 75.3435460 -57.5456049 6.7437497 
H 77.2824533 -56.6792132 8.7696559 
H 76.4175022 -58.3282228 9.0086592 
H 78.3389131 -54.3306900 6.8943851 
H 82.7409510 -57.7837314 3.6924885 
H 84.4145667 -54.0043808 5.4745795 
H 83.1102512 -53.1954089 6.2961768 
N 83.4395643 -53.9711178 5.7395785 
O 76.9794498 -56.4032377 6.2133584 
O 78.9676470 -59.0104368 4.7329093 
H 79.7885087 -58.5069545 4.4641360 
O 76.2585830 -59.0180113 4.9671631 
H 76.8937011 -59.3625282 4.3099344

