179
Cbl Energy = -5907.888127874
Co 73.2258909 -56.9634843 7.5156303 
N 73.7936219 -56.3945218 9.2022932 
N 73.8022857 -55.2782503 6.7441108 
N 72.7548987 -57.7839747 5.8395550 
N 73.1975307 -58.6472654 8.3489749 
C 73.5465109 -57.3339499 10.3450151 
C 72.0759210 -57.2628665 10.7777827 
C 74.5456332 -56.8100424 11.4485159 
C 74.0729962 -57.0707947 12.8785604 
C 75.9536230 -57.4380429 11.2229425 
C 77.0705615 -56.7558001 12.0021803 
O 77.1431484 -56.7807396 13.2378530 
C 74.6622359 -55.2987341 11.0817071 
C 73.6893100 -54.3012002 11.7556697 
C 74.2221112 -53.7376387 13.0751235 
C 73.2097442 -52.8034343 13.7257254 
O 71.9924807 -53.0340451 13.6984743 
C 74.4364265 -55.3176390 9.5857531 
C 74.8411899 -54.2552314 8.7146550 
C 75.6696895 -53.1450869 9.3303733 
C 74.5015519 -54.2550459 7.3753802 
C 74.9141279 -53.1906915 6.3447549 
C 74.7482451 -51.7221847 6.7621661 
C 76.4064459 -53.5052729 5.9793909 
C 76.9913059 -52.5112113 4.9856939 
O 76.6537321 -52.4904166 3.7920238 
C 74.0365242 -53.5629387 5.1137215 
C 72.7885914 -52.6947172 4.8126156 
C 71.6512162 -52.8573865 5.8146466 
C 70.3819272 -52.1229002 5.4058693 
O 70.2440624 -51.5767290 4.3027491
C 73.6249580 -54.9701447 5.4344640
C 73.0789793 -55.8056152 4.4789638
C 72.6917251 -57.1238846 4.6637606
C 72.1812924 -57.9773676 3.5187257
C 73.2988183 -58.2010001 2.4775050
C 70.9975038 -57.2640856 2.8411629
C 71.8511587 -59.3220084 4.2392793
C 70.3751413 -59.7980684 4.2417764
C 70.0373669 -60.8831520 3.1997841
C 69.9318476 -60.3658989 1.7759215
O 70.8209396 -60.5611442 0.9279164
C 72.3594486 -59.1015336 5.6555148
C 72.4256844 -60.1097526 6.5949004
C 72.0942317 -61.5240077 6.1662349
C 72.8750549 -59.8517595 7.9300627
C 73.1366683 -60.9055929 9.0129272
C 74.4728514 -61.6132261 8.6955831
C 72.0187601 -61.9445670 9.2367853
C 70.6206665 -61.3390330 9.2730538
C 69.5344408 -62.3648069 9.5615952
O 69.7705641 -63.5630050 9.7839701
C 73.2525540 -59.9991478 10.2785993
C 73.9805748 -60.6559870 11.4519288
C 73.2595518 -60.4787767 12.7868890
O 72.0530681 -60.2118913 12.8598261
C 73.8247241 -58.7055354 9.7004929
C 67.0970385 -62.6825267 9.6140209
C 66.7743892 -63.2725390 8.2407544
C 65.5456990 -64.1665230 8.2684085
O 66.5049896 -62.1821285 7.3075038
O 66.8191574 -61.4316390 4.9595758
O 68.8340087 -62.5344869 6.2273666
P 67.6115124 -61.6790067 6.2275650
O 68.0851578 -60.2140931 6.8143201
C 67.1289757 -59.1528671 6.8596953
C 67.2192913 -58.3734073 8.2095638
O 68.1989915 -58.9407121 9.0705905
C 67.5108238 -56.9096974 7.7867637
O 67.0910670 -56.8221651 6.4355944
C 67.3932959 -58.0801148 5.7831951
C 66.5333121 -58.1414418 4.5223665
O 66.9217633 -59.1997594 3.6523669
N 68.9033532 -56.4938220 7.9671454
C 69.2723766 -55.2668143 8.5190090
C 70.0670441 -57.1149334 7.5751947
N 71.1415302 -56.3791791 7.8144831
C 70.6748667 -55.2076553 8.4185267
C 71.3542415 -54.0909728 8.9095561
C 70.6316292 -53.0565825 9.5005055
C 71.3600830 -51.8469200 10.0307072
C 69.2117058 -53.1346172 9.6071996
C 68.4414763 -52.0149128 10.2606141
C 68.5264540 -54.2422032 9.1034569
H 71.9091014 -57.8829406 11.6613260
H 71.7750908 -56.2375732 10.9971049
H 71.4443897 -57.6341943 9.9687681
H 74.8337362 -56.7397426 13.5879004
H 73.9167508 -58.1381515 13.0454371
H 73.1334318 -56.5575031 13.0944163
H 75.9428480 -58.4857789 11.5363419
H 76.1977566 -57.4099629 10.1564841
H 75.6747883 -54.9523748 11.3063176
H 72.7092163 -54.7507440 11.9208721
H 73.5241874 -53.4666469 11.0675904
H 74.4158474 -54.5464644 13.7888988
H 75.1749206 -53.2209702 12.9151129
H 76.2439219 -53.5190943 10.1798855
H 75.0566863 -52.3111838 9.6924098
H 76.3917665 -52.7349621 8.6259001
H 73.7624286 -51.5386297 7.1968396
H 75.4982545 -51.4005020 7.4832835
H 74.8515874 -51.0833051 5.8800935
H 77.0117412 -53.5279475 6.8891706
H 76.4486244 -54.5003548 5.5255844
H 74.6580703 -53.5318937 4.2149977
H 73.0839311 -51.6447132 4.7328835
H 72.4221285 -52.9849468 3.8228199
H 71.9386517 -52.5222540 6.8162583
H 71.3952666 -53.9192677 5.9221614
H 72.9931260 -55.4003225 3.4764432
H 74.1729543 -58.6687862 2.9424158
H 72.9281527 -58.8598131 1.6852882
H 73.6101646 -57.2520342 2.0290274
H 70.2167651 -56.9946770 3.5591077
H 70.5567166 -57.8907817 2.0634457
H 71.3479436 -56.3411618 2.3695933
H 72.4504391 -60.1140112 3.7751506
H 70.1363109 -60.2157259 5.2210358
H 69.7044473 -58.9480543 4.1043564
H 70.8021525 -61.6642253 3.2149592
H 69.0831061 -61.3343037 3.4905914
H 72.7771648 -62.2396776 6.6256742
H 71.0692997 -61.8231852 6.4163817
H 72.2060102 -61.6318590 5.0856737
H 74.6926645 -62.3738785 9.4514319
H 75.3039976 -60.9010635 8.6689046
H 74.4280102 -62.1144487 7.7256162
H 72.2251626 -62.4407477 10.1934841
H 72.0601550 -62.7311364 8.4812773
H 70.5518376 -60.5569262 10.0377644
H 70.3723674 -60.8552758 8.3216955
H 72.2340125 -59.7897592 10.6163648
H 75.0251277 -60.3405787 11.5352366
H 74.0151865 -61.7426088 11.2994889
H 74.9029875 -58.8091969 9.5367768
H 66.2572994 -62.0757655 9.9665791
H 67.2642536 -63.4979119 10.3235852
H 67.6506587 -63.8136972 7.8727543
H 64.6675666 -63.6051598 8.6060440
H 65.3442170 -64.5668571 7.2707544
H 65.7078231 -65.0050393 8.9541034
H 66.1182393 -59.5552844 6.7491898
H 66.2413900 -58.3834986 8.6960593
H 68.0493187 -58.5836772 9.9619343
H 66.9148923 -56.1954073 8.3516905
H 68.4548405 -58.1102105 5.5051656
H 65.4765027 -58.2354511 4.8128923 
H 66.6562122 -57.2047610 3.9701327 
H 66.8707239 -60.0738988 4.1607533 
H 70.0823955 -58.1090950 7.1527326 
H 72.4307152 -54.0187986 8.8239619 
H 70.9185136 -50.9158373 9.6584808 
H 71.3209558 -51.8119391 11.1264170 
H 72.4115576 -51.8663815 9.7307134 
H 68.7990364 -51.8343339 11.2812191 
H 67.3753772 -52.2504538 10.3045506 
H 68.5627691 -51.0732432 9.7108401 
H 67.4444429 -54.2903618 9.1810208 
H 68.5076601 -51.6994763 6.1299379 
H 69.5147287 -52.5961326 7.2298772 
H 73.1214945 -51.0819236 14.8440628 
H 74.7246219 -51.5440829 14.3656399 
H 78.7841216 -55.6665136 11.6841646 
H 77.9820500 -56.1703766 10.2347788 
H 73.6140106 -60.6506424 14.8029995 
H 75.0076186 -60.9179267 13.8054914 
H 78.1853244 -51.6791260 6.4604815 
H 78.3143724 -50.9432678 4.8961137 
H 68.1250608 -59.4431624 2.2339881 
H 68.6994115 -59.2463551 0.5884636 
H 68.1816296 -60.8767523 9.2673682 
N 77.8897617 -51.6410026 5.4952238 
N 73.7298025 -51.7217179 14.3478747 
N 74.0281355 -60.6793333 13.8796494 
N 68.2850706 -61.8453959 9.5749834 
N 68.8024644 -59.6763521 1.4996631 
N 77.9805588 -56.0977250 11.2427119 
N 69.4029303 -52.1222307 6.3403922

