183
MeCbl Energy = -5947.817013217
Co 73.3202095 -56.9997997 7.5055589 
N 73.8038351 -56.4037858 9.2156579 
N 73.7442325 -55.2573402 6.7661105 
N 72.7199419 -57.7895717 5.8555277 
N 73.1555421 -58.6522798 8.3799025 
C 73.5329310 -57.3280482 10.3632594 
C 72.0674700 -57.2287583 10.8063938 
C 74.5489169 -56.8147939 11.4570795 
C 74.0875548 -57.0647285 12.8922724 
C 75.9448640 -57.4637945 11.2179279 
C 77.0812565 -56.7863061 11.9725467 
O 77.1669570 -56.7905573 13.2073666 
C 74.6837152 -55.3059184 11.0829153 
C 73.7281480 -54.2915179 11.7554728 
C 74.2764783 -53.7296008 13.0685725 
C 73.2811028 -52.7823379 13.7272978 
O 72.0577523 -52.9713800 13.6709765 
C 74.4595410 -55.3358577 9.5866646 
C 74.8794101 -54.2850096 8.7050747 
C 75.7600234 -53.2068404 9.3043901 
C 74.4886652 -54.2612252 7.3801059 
C 74.8764892 -53.1917982 6.3463551 
C 74.7437887 -51.7276863 6.7893129
C 76.3504879 -53.5239345 5.9267303 
C 76.9102511 -52.5333903 4.9149038 
O 76.5354807 -52.5109470 3.7324725 
C 73.9544819 -53.5431376 5.1391624 
C 72.7248209 -52.6455275 4.8570023 
C 71.6004866 -52.7658360 5.8790090 
C 70.3545700 -51.9827134 5.4865680 
O 70.2853315 -51.2998158 4.4552550 
C 73.5311520 -54.9457748 5.4673179 
C 72.9762601 -55.7840478 4.5181890 
C 72.6190893 -57.1132550 4.6964017 
C 72.0920682 -57.9582277 3.5527350 
C 73.1652597 -58.1070329 2.4539795 
C 70.8486539 -57.2711854 2.9582338 
C 71.8460925 -59.3340072 4.2512085 
C 70.4014133 -59.8959695 4.2379955 
C 70.1368723 -60.9942215 3.1899319 
C 70.0389495 -60.4859909 1.7615693 
O 70.9273353 -60.6973541 0.9171097 
C 72.3523944 -59.1120645 5.6689856 
C 72.4339152 -60.1203526 6.6066968 
C 72.1413771 -61.5418622 6.1735277 
C 72.8478557 -59.8540257 7.9535116 
C 73.0940791 -60.9031123 9.0460108 
C 74.4441903 -61.5959835 8.7542259 
C 71.9833854 -61.9516188 9.2511759 
C 70.5821422 -61.3543998 9.2583759 
C 69.4964872 -62.3779898 9.5536709 
O 69.7300963 -63.5770629 9.7726438 
C 73.1870331 -59.9899732 10.3091287 
C 73.8881171 -60.6406037 11.5016960 
C 73.1415294 -60.4468685 12.8208224 
O 71.9401419 -60.1533586 12.8681264 
C 73.7806932 -58.7081510 9.7279371 
C 67.0576628 -62.6882620 9.5948434 
C 66.7553830 -63.2758238 8.2158058 
C 65.5172001 -64.1569258 8.2197396 
O 66.5164200 -62.1828650 7.2771727 
O 66.8839373 -61.4421182 4.9339743 
O 68.8616876 -62.5642560 6.2431576
P 67.6489711 -61.6951341 6.2172681 
O 68.1297852 -60.2347550 6.8089675 
C 67.1919446 -59.1571349 6.8291697 
C 67.2710446 -58.3708942 8.1758480 
O 68.2275226 -58.9472701 9.0566203 
C 67.5909837 -56.9142447 7.7500553 
O 67.2021855 -56.8288636 6.3897994 
C 67.4960558 -58.0958326 5.7518807 
C 66.6602604 -58.1491331 4.4741091 
O 67.0423071 -59.2212273 3.6184346
N 68.9837813 -56.5102747 7.9596393 
C 69.3453682 -55.2814834 8.5119706 
C 70.1531006 -57.1345249 7.5915235
N 71.2256202 -56.4003480 7.8465935 
C 70.7497190 -55.2238890 8.4364459 
C 71.4158373 -54.1016877 8.9348132 
C 70.6814724 -53.0655190 9.5063897 
C 71.3996081 -51.8506120 10.0384185
C 69.2607673 -53.1442263 9.5894164 
C 68.4770409 -52.0219183 10.2216640 
C 68.5870136 -54.2552138 9.0779744 
C 75.1799204 -57.4793405 7.0584491 
H 71.9011101 -57.8392600 11.6965918 
H 71.7827794 -56.1976749 11.0190997 
H 71.4229534 -57.6007856 10.0084087 
H 74.8588099 -56.7383378 13.5924332 
H 73.9227917 -58.1300816 13.0654501 
H 73.1554811 -56.5409557 13.1152726 
H 75.9255110 -58.5079357 11.5428420 
H 76.1730709 -57.4511058 10.1473696 
H 75.7016242 -54.9706421 11.2999727 
H 72.7425828 -54.7258544 11.9280305 
H 73.5713750 -53.4582698 11.0638645 
H 74.4688488 -54.5381619 13.7832752 
H 75.2333631 -53.2230520 12.9004423 
H 76.3792183 -53.6181808 10.1042805 
H 75.1829779 -52.3777990 9.7314261 
H 76.4439299 -52.7822973 8.5716591 
H 73.7860992 -51.5451780 7.2833201 
H 75.5361643 -51.4204629 7.4707208 
H 74.8004655 -51.0768449 5.9120168 
H 76.9883269 -53.5574912 6.8133796 
H 76.3636230 -54.5179294 5.4687105 
H 74.5557310 -53.5292997 4.2261829 
H 73.0463516 -51.6048765 4.7616828 
H 72.3347769 -52.9334349 3.8751832 
H 71.9158471 -52.4252640 6.8707959 
H 71.3145046 -53.8169784 6.0068775 
H 72.8648970 -55.3736673 3.5203001 
H 74.0847703 -58.5349271 2.8669733 
H 72.7911307 -58.7736644 1.6700831 
H 73.4043633 -57.1374769 2.0055805 
H 70.0959574 -57.0576835 3.7236717 
H 70.3918706 -57.8887471 2.1821194 
H 71.1401934 -56.3193025 2.5046522 
H 72.4948104 -60.0784278 3.7733929 
H 70.1726262 -60.3256696 5.2139081 
H 69.6838312 -59.0878840 4.0915731 
H 70.9329454 -61.7427358 3.2209054 
H 69.1956667 -61.4850849 3.4595468 
H 72.8336404 -62.2413111 6.6438454 
H 71.1202600 -61.8652827 6.4089017 
H 72.2741406 -61.6459735 5.0948949 
H 74.6662089 -62.3381739 9.5273389 
H 75.2661544 -60.8732944 8.7238754 
H 74.4188583 -62.1161069 7.7939683 
H 72.1754929 -62.4452994 10.2120950 
H 72.0459229 -62.7380944 8.4968465 
H 70.4998892 -60.5549461 10.0032811 
H 70.3424088 -60.8942491 8.2931034 
H 72.1634777 -59.7699420 10.6243138 
H 74.9320603 -60.3287984 11.6041898 
H 73.9214343 -61.7285887 11.3592540 
H 74.8566064 -58.8326951 9.5616675 
H 66.2147743 -62.0790516 9.9352581 
H 67.2109748 -63.5049223 10.3061177
H 67.6330171 -63.8262169 7.8653222 
H 64.6381027 -63.5855912 8.5375310 
H 65.3324525 -64.5579638 7.2191209 
H 65.6562297 -64.9952059 8.9107965 
H 66.1763629 -59.5420739 6.7017227 
H 66.2850837 -58.3636955 8.6458482 
H 68.0682743 -58.5819378 9.9429496 
H 66.9910973 -56.1898790 8.2975060 
H 68.5627326 -58.1452613 5.4974550 
H 65.5963582 -58.2185471 4.7452065 
H 66.8133411 -57.2190742 3.9182406 
H 66.9685229 -60.0909003 4.1323032 
H 70.1737482 -58.1299241 7.1725049 
H 72.4922609 -54.0211647 8.8672834 
H 70.9558120 -50.9231972 9.6598341 
H 71.3534661 -51.8130539 11.1338097 
H 72.4534011 -51.8660673 9.7462748 
H 68.8215247 -51.8283246 11.2442588 
H 67.4116436 -52.2623614 10.2552230 
H 68.6004044 -51.0858483 9.6627186 
H 67.5039237 -54.3055974 9.1368822 
H 75.8523888 -56.9242468 7.7196173 
H 75.3256826 -58.5567123 7.1726521 
H 68.4516427 -51.6072224 6.1594254 
H 69.3825609 -52.6508829 7.1943790 
H 73.2285013 -51.0966587 14.9011177 
H 74.8242542 -51.5958996 14.4352823 
H 78.8084825 -55.7305784 11.6161587 
H 77.9830826 -56.2469076 10.1853757 
H 73.4497737 -60.6238569 14.8439127 
H 74.8572341 -60.9255581 13.8760970 
H 78.1561890 -51.7105292 6.3512350 
H 78.2391639 -50.9736687 4.7841941 
H 68.2401543 -59.5370585 2.2029929 
H 68.8174167 -59.3747086 0.5561610 
H 68.1516259 -60.8851228 9.2656311 
N 77.8284684 -51.6682266 5.3965616 
N 73.8245247 -51.7387626 14.3932037 
N 73.8825791 -60.6627279 13.9295548 
N 68.2484812 -61.8541347 9.5740319 
N 68.9138898 -59.7934240 1.4733756 
N 77.9923608 -56.1552035 11.1916019 
N 69.3193376 -52.0919495 6.3508555 
H 75.3483814 -57.1871729 6.0183779

