140
Cbi+_A Energy = -4461.397516577
Co 1.0691581 -0.4450992 0.4986371
C 0.3262177 1.9514574 -0.1115200
C -0.0461521 3.5010834 -0.0858507
C 1.4363490 3.5695511 -0.6078316
C 1.9831024 2.2115126 -0.2336511
C 3.3754081 1.8768099 -0.2384306
C 3.7836060 0.5614048 -0.1646195
C 5.2353463 0.0658457 -0.2839559
C 5.0491543 -1.4775602 -0.4370946
C 3.6206734 -1.6812710 -0.0375193
C 3.1154748 -2.9498532 0.2061703
C 1.8228698 -3.2429517 0.5887021
C 1.3561349 -4.6326584 0.9690693
C -0.1816472 -4.4499140 0.8684399
C -0.3386134 -2.9605269 1.1201914
C -1.4945026 -2.3416391 1.5634537
C -1.6509273 -0.9257970 1.4579487
C -2.9290305 -0.1305314 1.7549895
C -2.6279089 1.1865900 0.9734136
C -1.1088799 1.3006962 1.0501534
C -0.8813632 1.4700209 -1.4630421
C -1.0496652 4.3115677 -0.9149578
C -0.0610793 4.0329558 1.3757343
C 0.1563766 5.5414073 1.4682774 
C 1.6444455 3.8787333 -2.1149000
C 1.8153975 5.3830222 -2.3906384
C 3.2293088 5.8326169 -2.0257772
C 4.3473354 3.0324744 -0.3492095
C 6.0241838 0.6976172 -1.4450400
C 5.9460806 0.3382628 1.0810874 
C 7.4378059 0.0144265 1.0292497 
C 5.3402197 -2.1315235 -1.8180711
C 6.7009317 -2.8345123 -1.8272647
C 6.6915191 -3.9807581 -0.8148544
C 1.7404739 -4.8635276 2.4521163
C 1.9589690 -5.7452335 0.1047226
C -0.7349244 -4.8090710 -0.5362854 
C -2.2438815 -4.6379193 -0.6729944 
C -2.7381211 -4.9633359 -2.0843685 
C -2.5894793 -3.1853987 2.1882201  
C -3.0405036 0.1124007 3.2750938   
C -3.4923634 2.3974491 1.3515236   
C -4.8555306 2.2497413 0.6689592   
C -4.2319004 -0.7677179 1.2289901  
C -4.1967482 -1.1737934 -0.2538266 
C -5.5889373 -1.5740340 -0.7156021 
C -7.8217107 -0.6623739 -1.2510989 
C -8.5402954 0.6759628 -1.1264463  
C -10.0097439 0.5513809 -1.5050015
H 1.9603025 4.3483624 -0.0473133
H 5.6931446 -1.9827701 0.2888624
H 3.8133704 -3.7734963 0.0857822
H -0.6942404 -5.0570945 1.6196295
H -2.8581345 0.9872782 -0.0748338
H -0.7709266 1.7360838 1.9981366
H -0.1979897 1.7371729 -2.2712735
H -1.8624994 1.9011631 -1.6764847
H -0.9774893 0.3795850 -1.4515806
H -2.0727227 4.1556476 -0.5591465
H -1.0306230 4.0402128 -1.9707751
H -0.8332424 5.3805817 -0.8420425
H 0.7339403 3.5469602 1.9544384
H -1.0135482 3.7844289 1.8533664
H -0.7226512 7.2325836 2.2179665
H -1.6308464 5.7794298 2.5084902
H 0.8126041 3.4834681 -2.7032309
H 2.5432829 3.3674348 -2.4733904
H 1.0608678 5.9684794 -1.8579135
H 1.6996865 5.5682422 -3.4628291
H 4.2507980 6.9693994 -0.6742327
H 2.5439937 6.8412056 -0.3455755
H 5.3037030 2.8026094 0.1180622
H 3.9445645 3.9095388 0.1641216
H 4.5456177 3.3358499 -1.3821285
H 5.4141280 0.7684686 -2.3486795
H 6.9002437 0.0827106 -1.6668557
H 6.3794472 1.6998239 -1.2047419
H 5.7919429 1.3768809 1.3861467
H 5.4912361 -0.2977874 1.8487809
H 9.2685504 0.8818430 1.3380566
H 7.9268848 1.9514298 1.6148084
H 4.5759677 -2.8893774 -2.0115873
H 5.2766305 -1.3957760 -2.6233251
H 6.8821939 -3.2751287 -2.8147625
H 7.5162620 -2.1374471 -1.6129983
H 7.8013728 -4.7909145 0.6871611
H 8.3972630 -3.2760585 0.0911952
H 2.8273440 -4.8463599 2.5737524
H 1.3695451 -5.8406305 2.7786331
H 1.3043071 -4.0918519 3.0961875
H 1.7974270 -5.5718779 -0.9615381 
H 1.5123842 -6.7085658 0.3717400 
H 3.0371373 -5.8202533 0.2740132 
H -0.4765992 -5.8470765 -0.7582071 
H -0.2289543 -4.1974565 -1.2922212 
H -2.5354835 -3.6125989 -0.4308957 
H -2.7732094 -5.2909855 0.0327065 
H -4.4040097 -4.7975014 -3.2459660 
H -4.6078097 -4.0782538 -1.6719008 
H -2.1906224 -4.1495179 2.5040082 
H -3.4307238 -3.3860530 1.5192246 
H -2.9866718 -2.6986189 3.0821903 
H -3.9686816 0.6431380 3.5116529 
H -2.1966392 0.7005209 3.6509769 
H -3.0586983 -0.8324054 3.8227088 
H -3.5815933 2.5305030 2.4341403 
H -3.0447554 3.3091545 0.9427903 
H -6.8652471 2.1051790 1.0171837 
H -5.8998598 2.4860960 2.4301480 
H -5.0346835 -0.0393602 1.3809636 
H -4.5080527 -1.6309580 1.8372406 
H -3.8461134 -0.3414611 -0.8706703 
H -3.5234144 -2.0180510 -0.4085149 
H -6.0005427 0.4197365 -0.9153373 
H -8.2573980 -1.3932215 -0.5620506 
H -7.9630939 -1.0420383 -2.2714643 
H -8.0470598 1.4144895 -1.7751641 
H -10.5114766 -0.1851643 -0.8687822 
H -10.1121417 0.2372381 -2.5481342 
H -10.5194027 1.5162490 -1.3999488 
H -9.2025735 1.6515211 0.4573156
N 1.0324291 1.3598697 0.0585424 
N 2.9269723 -0.5222522 0.0437243 
N 0.8385034 -2.3169424 0.7613407 
N -0.6860141 -0.1272558 1.0455795 
N -0.8291873 6.2331373 2.0968996 
N 3.3256460 6.6890130 -0.9733844 
N 8.2694286 1.0439755 1.3366111 
N 7.8025003 -4.0850726 -0.0387901 
N -4.0141896 -4.5674954 -2.3415368 
N -5.9646333 2.3784057 1.4279315 
N -6.4030756 -0.5197130 -0.9556961 
O 1.1471674 6.1129542 1.0090951 
O 4.2063954 5.4297247 -2.6546591 
O 7.8664024 -1.0974408 0.7195978 
O 5.7448258 -4.7666772 -0.7354195 
O -2.0307860 -5.5380913 -2.9078648 
O -4.9132454 1.9981283 -0.5419462 
O -5.9501492 -2.7547893 -0.8046666 
O -8.4049056 1.1379447 0.2532657
