209
AdoCbl Energy = -6796.174573935
Co 0.0 0.0 0.0
N 0.40824250000000006 0.6015011000000001 1.7316289999999999
N 0.3068669999999969 1.7664769000000007 -0.7215834999999995
N -0.6167166000000037 -0.7862610999999973 -1.6381128
N -0.016998799999996095 -1.670447100000004 0.8606149999999992
C 0.17398249999999393 -0.3590826000000007 2.8606133000000007
C -1.3159947000000045 -0.47024199999999894 3.2063941000000007
C 1.0226215999999937 0.2692265999999961 4.0425159
C 0.38864139999999736 0.018753300000000195 5.4161591
C 2.469954599999994 -0.2601009999999988 4.0107716
C 3.4674435000000017 0.4501980000000003 4.9415987
O 3.137505500000003 1.1290472000000022 5.9251717
C 1.0972658999999965 1.7757930000000002 3.6286354999999997
C 0.03324560000000076 2.741820099999998 4.196415099999999
C 0.4108669999999961 3.3335082999999983 5.5558931000000005
C -0.7260749999999945 4.172424299999996 6.1239492
O -1.9126222000000013 3.834910700000002 6.0077538
C 0.9683596999999935 1.7127862999999977 2.123911400000001
C 1.3558445000000034 2.784555900000001 1.244894500000001
C 2.153515100000007 3.9193260999999993 1.8557854999999996
C 1.001819800000007 2.789814100000001 -0.08999410000000019
C 1.3741071000000034 3.8658598999999967 -1.1220822000000004
C 1.2339646000000073 5.331398499999999 -0.6873163
C 2.856402200000005 3.5520961 -1.5279518999999997
C 3.406162699999996 4.529899800000003 -2.5580548
O 3.0385955999999936 4.514212399999998 -3.7425895
C 0.45696370000000286 3.5014704999999964 -2.3306363999999995
C -0.791861499999996 4.375583999999996 -2.6018239000000003
C -1.8910977999999972 4.248018099999996 -1.5530730999999998
C -3.1583616000000063 5.0079952999999975 -1.9203516
O -3.206978399999997 5.823542199999999 -2.8511027
C 0.06244820000000573 2.0876626000000016 -2.0113633999999996
C -0.5141854999999964 1.2487460999999982 -2.9496412000000003
C -0.8352167999999978 -0.08938820000000192 -2.7700544999999996
C -1.4856420999999926 -0.9151620000000023 -3.8617949
C -0.641426899999999 -0.9163971999999987 -5.1510403
C -2.865367000000006 -0.2891187999999971 -4.153903
C -1.5211618000000016 -2.3384935999999996 -3.2136727
C -2.881994699999993 -3.077502299999999 -3.1949622
C -3.0612914000000018 -4.147168399999998 -4.2883821
C -3.2805390000000045 -3.586379000000001 -5.68457
O -2.436688899999993 -3.709299200000004 -6.5902614999999996
C -0.9526673000000017 -2.117882899999998 -1.8183173999999998
C -0.7341179999999952 -3.1397315999999975 -0.9138266000000002
C -0.9392665999999963 -4.569195800000003 -1.3715761999999998
C -0.2515896999999967 -2.879074799999998 0.41417470000000023
C 0.14833670000000154 -3.934828000000003 1.4477794
C 1.5121799000000067 -4.5188387999999975 1.0147598999999996
C -0.871861899999999 -5.061268499999997 1.7010418999999999
C -2.3048272999999995 -4.5552578 1.8041736999999998
C -3.300691200000003 -5.651153399999998 2.1547587999999998
O -2.9697510999999963 -6.828060200000003 2.3663796
C 0.30205739999999537 -3.0725565999999986 2.7482471000000004
C 1.312933000000001 -3.6906909 3.717869800000001
C 1.0346291000000036 -3.419767399999998 5.187253200000001
O -0.11771290000000079 -3.353103400000002 5.6337993
C 0.6375613000000016 -1.681584700000002 2.1986825999999997
C -5.705675200000002 -6.136854800000002 2.3027961999999995
C -6.020612099999994 -6.754512499999997 0.9397160000000007
C -7.185106199999993 -7.728968500000001 0.9999879000000007
O -6.384735300000003 -5.6892572 0.009237399999999951
O -6.178727300000006 -4.927715900000003 -2.3466581
O -4.0617132 -5.8805261999999985 -1.1247943999999999
P -5.342295500000006 -5.114518199999999 -1.0977335999999998
O -4.955738299999993 -3.6189757 -0.5243025999999995
C -5.980501000000004 -2.626907199999998 -0.4414328999999997
C -5.876167899999999 -1.829498000000001 0.8971382000000006
O -4.813983800000003 -2.316481500000002 1.7081309999999998
C -5.7159599999999955 -0.3533734000000024 0.4498386999999999
O -6.208186900000001 -0.31032650000000217 -0.8778952000000002
C -5.841649399999994 -1.548060900000003 -1.5346149000000002
C -6.740306899999993 -1.6787192000000033 -2.7628506999999995
O -6.299810800000003 -2.700225699999997 -3.6520508
N -4.352270700000005 0.1734486000000004 0.5583419000000003
C -4.071912999999995 1.442982800000003 1.0628984999999993
C -3.1520234000000045 -0.3650700000000029 0.15884959999999992
N -2.132317900000004 0.45884639999999877 0.3567916000000002
C -2.6799105000000054 1.6094664999999964 0.9370954000000005
C -2.0924739999999957 2.7938298999999986 1.3885682
C -2.890781799999999 3.7834705 1.956182
C -2.260948799999994 5.0679124999999985 2.4317294999999994
C -4.297471299999998 3.596215799999996 2.0842732
C -5.1478838999999965 4.670378200000002 2.7125731
C -4.893931699999996 2.421847399999997 1.6233877999999997
C 4.504882800000004 -1.558761000000004 -1.4671731999999995
C 3.378418499999995 -2.5850983999999997 -1.7664216000000001
C 2.328744900000004 -1.7358265000000017 -2.4737992
C 2.4882941999999986 -0.3965456999999972 -1.7614795
C 1.9385895000000062 -0.30690220000000323 -0.3479473999999998
C 5.186232500000003 -3.6315065000000004 2.9058141000000006
C 5.1635597000000075 -2.5653813999999997 1.984160600000001
N 5.202433600000006 -1.1849259999999973 2.121697900000001
C 5.0507171 -0.7179585000000017 0.8936150999999999
N 4.920123399999994 -1.7110740999999976 -0.046001200000000075
C 5.009889400000006 -2.909856900000001 0.6348860999999992
N 4.9406622000000056 -4.155532700000002 0.1309939
C 5.015201200000007 -5.082901399999997 1.0989579999999997
N 5.121405199999998 -4.892668300000004 2.4237797000000008
H -1.4429789 -1.0994121000000021 4.0896671
H -1.7520509000000004 0.5095170000000024 3.4091974999999994
H -1.858304700000005 -0.9234769999999983 2.3771027999999994
H 1.057610699999998 0.3822197000000003 6.1955802
H 0.21964880000000164 -1.048214299999998 5.574396500000001
H -0.5752932000000044 0.5234154999999987 5.5127685
H 2.4899005999999986 -1.3184620000000038 4.289191199999999
H 2.8737481000000002 -0.19815100000000285 2.9940703000000006
H 2.0747954999999934 2.169552699999997 3.9157954999999998
H -0.9418369999999925 2.2546330999999995 4.263636099999999
H -0.09318620000000521 3.566321500000001 3.4877287
H 0.6197126999999938 2.5359944 6.276472
H 1.3272704999999974 3.927730099999998 5.473476700000001
H 2.6454398000000054 3.5948408 2.773040999999999
H 1.530624599999996 4.785157099999999 2.1066626999999993
H 2.940702299999998 4.267023600000002 1.1858266999999998
H 0.29180189999999584 5.509560399999998 -0.16327360000000013
H 2.046968100000001 5.651932500000001 -0.036798600000000015
H 1.2545941000000056 5.973805999999996 -1.5721758000000001
H 3.485918699999999 3.5485248999999968 -0.6342623999999999
H 2.894808900000001 2.5509878000000015 -1.9666666
H 1.0558591000000064 3.5318076000000005 -3.2451786
H -0.4899896999999953 5.419844900000001 -2.7151043999999995
H -1.1941376999999989 4.0682773999999995 -3.5730765
H -1.556830099999999 4.621432900000002 -0.5788782999999995
H -2.1493566000000044 3.194963999999999 -1.3946841
H -0.6882978999999949 1.6694293999999985 -3.9340566999999997
H 0.3798766000000029 -1.250634699999999 -4.9445847
H -1.0956120000000027 -1.5923495999999986 -5.88229
H -0.5961587999999978 0.08646389999999826 -5.5878712
H -3.4721183999999994 -0.20167550000000034 -3.2466371
H -3.415482499999996 -0.8791768999999974 -4.8910028
H -2.7248440000000045 0.7176404000000005 -4.5581078999999995
H -0.8071584000000058 -2.9700688 -3.7601385
H -3.0141856999999987 -3.573310499999998 -2.2336557
H -3.697887300000005 -2.359065600000001 -3.2709140000000003
H -2.1854337999999984 -4.800037600000003 -4.329036
H -3.928467900000001 -4.756824700000003 -4.0115753000000005
H -0.17511349999999481 -5.223481499999998 -0.9515295000000004
H -1.9192513999999932 -4.979227999999999 -1.0990406999999998
H -0.8480272000000042 -4.6374217999999985 -2.4576086000000004
H 1.8018758999999989 -5.350276800000003 1.6630541
H 2.295732099999995 -3.7561833000000036 1.0706919999999993
H 1.4813694999999996 -4.893182899999999 -0.010284900000000263
H -0.5855288000000058 -5.555093900000003 2.638087799999999
H -0.8060574000000003 -5.829121900000004 0.9280688000000001
H -2.3914450999999985 -3.7641042999999996 2.5581908999999996
H -2.6340033999999974 -4.106631999999998 0.8602334000000003
H -0.6672405999999995 -3.038559499999998 3.2528729
H 2.3407530000000065 -3.4192110999999983 3.4586179999999995
H 1.2543344000000047 -4.783623499999997 3.6321829999999995
H 1.7190274000000016 -1.6102582999999981 2.0282666999999996
H -6.5758043999999956 -5.588222399999999 2.6758018000000003
H -5.4634108999999995 -6.934940300000001 3.0103554
H -5.1187836999999945 -7.237386200000003 0.5527569000000003
H -8.091446599999998 -7.225539699999999 1.3538581999999995
H -7.380712700000004 -8.149442900000004 0.00952339999999996
H -6.951653699999994 -8.549482899999994 1.6868920999999997
H -6.965142499999999 -3.099059099999998 -0.4989042999999995
H -6.823501100000001 -1.904638900000002 1.4353824
H -4.9451303999999965 -1.9680301 2.6058831
H -6.335495199999997 0.318813200000001 1.0400601999999992
H -4.791513199999997 -1.5016950999999992 -1.8506726999999996
H -7.774344999999997 -1.858748900000002 -2.4343271
H -6.713867300000004 -0.7342293000000026 -3.3147208
H -6.260557899999995 -3.5767475999999974 -3.1456155
H -3.0675892000000005 -1.3674025999999984 -0.23477519999999963
H -1.028679100000005 2.9585500999999965 1.2886901999999996
H -2.7650665999999973 5.942954499999999 2.005998999999999
H -2.3214552000000026 5.1540886000000015 3.5233013
H -1.2061707999999953 5.113244399999999 2.145427100000001
H -4.796130899999994 4.906943400000003 3.7236762999999993
H -6.1919702 4.354195799999999 2.7739151
H -5.103925899999993 5.602046600000001 2.134799900000001
H -5.967275000000001 2.2872216999999964 1.7161796999999996
H 5.380984699999999 -1.6984460000000041 -2.1040408
H 2.950219599999997 -2.9272050000000007 -0.8199246000000002
H 1.333248299999994 -2.1659837999999993 -2.3451461
H 2.1700493000000023 0.42968739999999883 -2.3987046000000003
H 2.4149081999999993 0.5496042999999986 0.1369208000000004
H 2.2152451999999982 -1.2082763000000014 0.204415
H 5.013525000000001 0.32476210000000094 0.6173224000000008
H 4.976659499999997 -6.118364800000002 0.7716800999999993
H -5.1032644000000005 5.221493000000002 -1.2979874000000002
H -4.170625799999996 4.094869099999997 -0.3577178999999999
H -1.0509064999999964 5.874651899999996 7.2288137
H 0.6186857000000003 5.557704199999996 6.8753203
H 5.479742099999996 0.6851541999999995 5.161208800000001
H 5.014943099999996 -0.2184463999999977 3.7201202999999996
H 2.0400378000000075 -3.2094148999999987 6.9674417
H 3.066149100000004 -3.418187600000003 5.580116200000001
H 4.626897700000001 5.407391400000002 -1.1332879
H 4.708723199999994 6.108171900000002 -2.7169808
H 5.470992800000005 -4.2544228 4.8142064
H 5.5106468000000035 -2.5546628000000027 4.610175099999999
H -5.124077299999996 -2.807169800000004 -5.1044512
H -4.646952900000002 -2.5193616999999975 -6.7683364
H -4.759560100000002 -4.259860600000003 1.9236120000000003
N 5.199062900000001 -3.4521561000000034 4.2559942
N 4.304984000000005 5.4218142 -2.0908498
N -0.35261989999999344 5.295405500000001 6.779014399999999
N 2.134484999999998 -3.2982364000000004 5.9629289
N -4.580558400000001 -5.2182964 2.228117299999999
N -4.457489800000005 -2.949892900000002 -5.871457299999999
N 4.758264999999994 0.23627210000000076 4.6090172
N -4.234769400000005 4.722555800000002 -1.1509847999999998
O 3.971882199999996 -0.27238750000000067 -1.6759179
O 3.787580399999996 -3.6994194000000036 -2.5371860999999996
H 4.295461500000002 -4.257852999999997 -1.906816
O 2.639189000000002 -1.5601655999999977 -3.8586903
H 2.901132799999999 -2.4327583000000033 -4.2029715

